
**** 02/09/22 22:47:34 ********* PSpice 9.2 (Mar 2000) ******** ID# 0 ********

 * D:\2 1 hardware project\schematics\s2.sch


 ****     CIRCUIT DESCRIPTION


******************************************************************************




* Schematics Version 9.2
* Wed Feb 09 22:47:34 2022



** Analysis setup **
.DC LIN V_Vdd 0 30 1 
.OP 


* From [PSPICE NETLIST] section of C:\Program Files\Orcad\PSpice\PSpice.ini:
.lib "nom.lib"

.INC "s2.net"



**** INCLUDING s2.net ****
* Schematics Netlist *



V_Vdd         1 0 0V
M_M3         D G 0 0 IRF150
V_Vgs         G 0 3
R_RD         D 1  560  

**** RESUMING s2.cir ****
.PROBE V(*) I(*) W(*) D(*) NOISE(*) 


.END

**** 02/09/22 22:47:34 ********* PSpice 9.2 (Mar 2000) ******** ID# 0 ********

 * D:\2 1 hardware project\schematics\s2.sch


 ****     MOSFET MODEL PARAMETERS


******************************************************************************




               IRF150          
               NMOS            
       LEVEL    3            
           L    2.000000E-06 
           W     .3          
         VTO    2.831        
          KP   20.530000E-06 
       GAMMA    0            
         PHI     .6          
      LAMBDA    0            
          RD    1.031000E-03 
          RS    1.624000E-03 
          RG   13.89         
         RDS  444.400000E+03 
          IS  194.000000E-18 
          JS    0            
          PB     .8          
        PBSW     .8          
         CBD    3.229000E-09 
          CJ    0            
        CJSW    0            
          TT  288.000000E-09 
        CGSO    9.027000E-09 
        CGDO    1.679000E-09 
        CGBO    0            
         TOX  100.000000E-09 
          XJ    0            
       UCRIT   10.000000E+03 
       DELTA    0            
         ETA    0            
      DIOMOD    1            
         VFB    0            
        LETA    0            
        WETA    0            
          U0    0            
        TEMP    0            
         VDD    0            
       XPART    0            


**** 02/09/22 22:47:34 ********* PSpice 9.2 (Mar 2000) ******** ID# 0 ********

 * D:\2 1 hardware project\schematics\s2.sch


 ****     SMALL SIGNAL BIAS SOLUTION       TEMPERATURE =   27.000 DEG C


******************************************************************************



 NODE   VOLTAGE     NODE   VOLTAGE     NODE   VOLTAGE     NODE   VOLTAGE


(    1)    0.0000  (    D)-34.42E-27  (    G)    3.0000  




    VOLTAGE SOURCE CURRENTS
    NAME         CURRENT

    V_Vdd       -6.146E-29
    V_Vgs        0.000E+00

    TOTAL POWER DISSIPATION   0.00E+00  WATTS


**** 02/09/22 22:47:34 ********* PSpice 9.2 (Mar 2000) ******** ID# 0 ********

 * D:\2 1 hardware project\schematics\s2.sch


 ****     OPERATING POINT INFORMATION      TEMPERATURE =   27.000 DEG C


******************************************************************************






**** MOSFETS


NAME         M_M3      
MODEL        IRF150    
ID          -1.79E-26 
VGS          3.00E+00 
VDS         -3.44E-26 
VBS          0.00E+00 
VTH          2.83E+00 
VDSAT        1.69E-01 
Lin0/Sat1   -1.00E+00 
if          -1.00E+00 
ir          -1.00E+00 
TAU         -1.00E+00 
GM           1.06E-25 
GDS          5.20E-01 
GMB          0.00E+00 
CBD          3.23E-09 
CBS          2.90E-19 
CGSOV        2.71E-09 
CGDOV        5.04E-10 
CGBOV        0.00E+00 
CGS          1.04E-10 
CGD          1.04E-10 
CGB          0.00E+00 

          JOB CONCLUDED

          TOTAL JOB TIME            0.00
